<?xml version="1.0" encoding="UTF-8"?>

<configuration xmlns:xsi="http://www.w3.org/2001/XMLSchema-instance" xsi:noNamespaceSchemaLocation="http://sumo.dlr.de/xsd/sumoConfiguration.xsd">

    <input>
        <net-file value="grid01-bcn_100.net.xml"/>
        <route-files value="activitygen-bcn_100.rou.xml,random/random_ALL.rou.xml"/>
    </input>

	<additional-files>
        <additional-files value="init_edgedata_additional_file.xml"/>
	</additional-files>

    
    <time>
        <begin value="0"/>
        <end value="86400"/>
        <!--<step-length value="0.1"/>-->
    </time>

    <output>
    <!--<fcd-output value="SUMO_output.output.xml"/>-->
    <!--<fcd-output.geo value="true"/>-->
    </output>

</configuration>